Circuit: * C:\Users\sylvain\Documents\dev\stomp\distortion_01\simu\distortion_01.asc

Instance "m:u4:2": Length shorter than recommended for a level 1 MOSFET.
Instance "m:u3:2": Length shorter than recommended for a level 1 MOSFET.
Early termination of direct N-R iteration.
Direct Newton iteration failed to find .op point.  (Use ".option noopiter" to skip.)
Starting Gmin stepping
Gmin = 10
vernier = 0.5
vernier = 0.25
vernier = 0.125
Gmin = 5.49741
vernier = 0.0625
vernier = 0.03125
vernier = 0.015625
vernier = 0.0078125
Gmin = 5.51716
vernier = 0.00390625
vernier = 0.00195313
vernier = 0.000976563
vernier = 0.000488281
Gmin = 5.50104
Gmin = 0
Gmin stepping failed

Starting source stepping with srcstepmethod=0
Source Step = 3.0303%
Source Step = 33.3333%
Source Step = 63.6364%
Source Step = 93.9394%
Source stepping succeeded in finding the operating point.


Date: Sat Sep 02 21:14:41 2017
Total elapsed time: 2.931 seconds.

tnom = 27
temp = 27
method = trap
totiter = 1663
traniter = 0
tranpoints = 0
accept = 0
rejected = 0
matrix size = 170
fillins = 1607
solver = Normal
Matrix Compiler1:   14352 opcodes
Matrix Compiler2: 42.83 KB object code size  36.6/33.4/[17.9]

